THERMO ALL
0300.00  1000.00  5000.00
! From GRI mechanism
HO2               L 5/89H   1O   2   00   00G   200.000  3500.000  1000.000    1
 4.01721090E+00 2.23982013E-03-6.33658150E-07 1.14246370E-10-1.07908535E-14    2
 1.11856713E+02 3.78510215E+00 4.30179801E+00-4.74912051E-03 2.11582891E-05    3
-2.42763894E-08 9.29225124E-12 2.94808040E+02 3.71666245E+00 1.00021620E+04    4
CH2O            NIST/98 C   1H   2O   1    0G   300.000  4000.000 1200.00      1
 0.51481905E+01 0.28678016E-02-0.23782633E-06-0.16111303E-09 0.28566735E-13    2
-0.16230173E+05-0.51213813E+01 0.26962612E+01 0.49261423E-02 0.82826494E-06    3
-0.55038196E-09-0.39610326E-12-0.14970793E+05 0.94697599E+01                   4
AR                120186AR  1               G  0300.00   5000.00  1000.00      1
 0.02500000E+02 0.00000000E+00 0.00000000E+00 0.00000000E+00 0.00000000E+00    2
-0.07453750E+04 0.04366001E+02 0.02500000E+02 0.00000000E+00 0.00000000E+00    3
 0.00000000E+00 0.00000000E+00-0.07453750E+04 0.04366001E+02                   4
C2H6              121686C   2H   6          G  0300.00   4000.00  1000.00      1
 0.04825938E+02 0.01384043E+00-0.04557259E-04 0.06724967E-08-0.03598161E-12    2
-0.01271779E+06-0.05239507E+02 0.01462539E+02 0.01549467E+00 0.05780507E-04    3
-0.01257832E-06 0.04586267E-10-0.01123918E+06 0.01443229E+03                   4
CH3O              121686C   1H   3O   1     G  0300.00   3000.00  1000.00      1
 0.03770800E+02 0.07871497E-01-0.02656384E-04 0.03944431E-08-0.02112616E-12    2
 0.01278325E+04 0.02929575E+02 0.02106204E+02 0.07216595E-01 0.05338472E-04    3
-0.07377636E-07 0.02075611E-10 0.09786011E+04 0.01315218E+03                   4
CH3OH             121686C   1H   4O   1     G  0300.00   5000.00  1000.00      1
 0.04029061E+02 0.09376593E-01-0.03050254E-04 0.04358793E-08-0.02224723E-12    2
-0.02615791E+06 0.02378196E+02 0.02660115E+02 0.07341508E-01 0.07170051E-04    3
-0.08793194E-07 0.02390570E-10-0.02535348E+06 0.01123263E+03                   4
CH4               121286C   1H   4          G  0300.00   5000.00  1000.00      1
 0.01683479E+02 0.01023724E+00-0.03875129E-04 0.06785585E-08-0.04503423E-12    2
-0.01008079E+06 0.09623395E+02 0.07787415E+01 0.01747668E+00-0.02783409E-03    3
 0.03049708E-06-0.01223931E-09-0.09825229E+05 0.01372219E+03                   4
CO                121286C   1O   1          G  0300.00   5000.00  1000.00      1
 0.03025078E+02 0.01442689E-01-0.05630828E-05 0.01018581E-08-0.06910952E-13    2
-0.01426835E+06 0.06108218E+02 0.03262452E+02 0.01511941E-01-0.03881755E-04    3
 0.05581944E-07-0.02474951E-10-0.01431054E+06 0.04848897E+02                   4
CO2               121286C   1O   2          G  0300.00   5000.00  1000.00      1
 0.04453623E+02 0.03140169E-01-0.01278411E-04 0.02393997E-08-0.01669033E-12    2
-0.04896696E+06-0.09553959E+01 0.02275725E+02 0.09922072E-01-0.01040911E-03    3
 0.06866687E-07-0.02117280E-10-0.04837314E+06 0.01018849E+03                   4
H                 120186H   1               G  0300.00   5000.00  1000.00      1
 0.02500000E+02 0.00000000E+00 0.00000000E+00 0.00000000E+00 0.00000000E+00    2
 0.02547163E+06-0.04601176E+01 0.02500000E+02 0.00000000E+00 0.00000000E+00    3
 0.00000000E+00 0.00000000E+00 0.02547163E+06-0.04601176E+01                   4
H2                121286H   2               G  0300.00   5000.00  1000.00      1
 0.02991423E+02 0.07000644E-02-0.05633829E-06-0.09231578E-10 0.01582752E-13    2
-0.08350340E+04-0.01355110E+02 0.03298124E+02 0.08249442E-02-0.08143015E-05    3
-0.09475434E-09 0.04134872E-11-0.01012521E+05-0.03294094E+02                   4
H2O                20387H   2O   1          G  0300.00   5000.00  1000.00      1
 0.02672146E+02 0.03056293E-01-0.08730260E-05 0.01200996E-08-0.06391618E-13    2
-0.02989921E+06 0.06862817E+02 0.03386842E+02 0.03474982E-01-0.06354696E-04    3
 0.06968581E-07-0.02506588E-10-0.03020811E+06 0.02590233E+02                   4
H2O2              120186H   2O   2          G  0300.00   5000.00  1000.00      1
 0.04573167E+02 0.04336136E-01-0.01474689E-04 0.02348904E-08-0.01431654E-12    2
-0.01800696E+06 0.05011370E+01 0.03388754E+02 0.06569226E-01-0.01485013E-05    3
-0.04625806E-07 0.02471515E-10-0.01766315E+06 0.06785363E+02                   4
HCO               121286H   1C   1O   1     G  0300.00   5000.00  1000.00      1
 0.03557271E+02 0.03345573E-01-0.01335006E-04 0.02470573E-08-0.01713851E-12    2
 0.03916324E+05 0.05552299E+02 0.02898330E+02 0.06199147E-01-0.09623084E-04    3
 0.01089825E-06-0.04574885E-10 0.04159922E+05 0.08983614E+02                   4
O                 120186O   1               G  0300.00   5000.00  1000.00      1
 0.02542060E+02-0.02755062E-03-0.03102803E-07 0.04551067E-10-0.04368052E-14    2
 0.02923080E+06 0.04920308E+02 0.02946429E+02-0.01638166E-01 0.02421032E-04    3
-0.01602843E-07 0.03890696E-11 0.02914764E+06 0.02963995E+02                   4
O2                121386O   2               G  0300.00   5000.00  1000.00      1
 0.03697578E+02 0.06135197E-02-0.01258842E-05 0.01775281E-09-0.01136435E-13    2
-0.01233930E+05 0.03189166E+02 0.03212936E+02 0.01127486E-01-0.05756150E-05    3
 0.01313877E-07-0.08768554E-11-0.01005249E+05 0.06034738E+02                   4
N2                121286N   2               G  0300.00   5000.00  1000.00      1
 0.02926640E+02 0.01487977E-01-0.05684761E-05 0.01009704E-08-0.06753351E-13    2
-0.09227977E+04 0.05980528E+02 0.03298677E+02 0.01408240E-01-0.03963222E-04    3
 0.05641515E-07-0.02444855E-10-0.01020900E+05 0.03950372E+02                   4
!
! Henry Curran
HOCH2O     8/ 4/99 THERMC   1H   3O   2    0G   300.000  5000.000 1452.000     1
 6.39521515E+00 7.43673043E-03-2.50422354E-06 3.84879712E-10-2.21778689E-14    2
-2.47500385E+04-7.29290847E+00 4.11183145E+00 7.53850697E-03 3.77337370E-06    3
-5.38746005E-09 1.45615887E-12-2.34414546E+04 6.81381989E+00                   4
!
C2H3              L 2/92C   2H   3   00   00G   200.000  3500.000  1000.000    1
 3.01672400E+00 1.03302292E-02-4.68082349E-06 1.01763288E-09-8.62607041E-14    2
 3.46128739E+04 7.78732378E+00 3.21246645E+00 1.51479162E-03 2.59209412E-05    3
-3.57657847E-08 1.47150873E-11 3.48598468E+04 8.51054025E+00 1.05750490E+04    4
C2H4              L 1/91C   2H   4   00   00G   200.000  3500.000  1000.000    1
 2.03611116E+00 1.46454151E-02-6.71077915E-06 1.47222923E-09-1.25706061E-13    2
 4.93988614E+03 1.03053693E+01 3.95920148E+00-7.57052247E-03 5.70990292E-05    3
-6.91588753E-08 2.69884373E-11 5.08977593E+03 4.09733096E+00 1.05186890E+04    4
!
! A. Burcat
CH2HCO            T04/83O   1H   3C   2    0G   300.     5000.                 1
 0.59756699E+01 0.81305914E-02-0.27436245E-05 0.40703041E-09-0.21760171E-13    2
 0.49032178E+03-0.50320879E+01 0.34090624E+01 0.10738574E-01 0.18914925E-05    3
-0.71585831E-08 0.28673851E-11 0.15214766E+04 0.95714535E+01                   4
CH2CO             L 5/90C   2H   2O   1   00G   200.000  3500.000  1000.000    1
 4.51129732E+00 9.00359745E-03-4.16939635E-06 9.23345882E-10-7.94838201E-14    2
-7.55105311E+03 6.32247205E-01 2.13583630E+00 1.81188721E-02-1.73947474E-05    3
 9.34397568E-09-2.01457615E-12-7.04291804E+03 1.22156480E+01 1.17977430E+04    4
CH3HCO            L 8/88C   2H   4O   1    0G   200.000  6000.0    1000.0      1
 0.54041108E+01 0.11723059E-01-0.42263137E-05 0.68372451E-09-0.40984863E-13    2
-0.22593122E+05-0.34807917E+01 0.47294595E+01-0.31932858E-02 0.47534921E-04    3
-0.57458611E-07 0.21931112E-10-0.21572878E+05 0.41030159E+01-0.19987949E+05    4
C2H2              L 1/91C   2H   2   00   00G   200.000  3500.000  1000.000    1
 4.14756964E+00 5.96166664E-03-2.37294852E-06 4.67412171E-10-3.61235213E-14    2
 2.59359992E+04-1.23028121E+00 8.08681094E-01 2.33615629E-02-3.55171815E-05    3
 2.80152437E-08-8.50072974E-12 2.64289807E+04 1.39397051E+01 1.00058390E+04    4
HCCO              SRIC91H   1C   2O   1     G  0300.00   4000.00  1000.00      1
 0.56282058E+01 0.40853401E-02-0.15934547E-05 0.28626052E-09-0.19407832E-13    2
 0.19327215E+05-0.39302595E+01 0.22517214E+01 0.17655021E-01-0.23729101E-04    3
 0.17275759E-07-0.50664811E-11 0.20059449E+05 0.12490417E+02                   4
C2H               L 1/91C   2H   1   00   00G   200.000  3500.000  1000.000    1
 3.16780652E+00 4.75221902E-03-1.83787077E-06 3.04190252E-10-1.77232770E-14    2
 6.71210650E+04 6.63589475E+00 2.88965733E+00 1.34099611E-02-2.84769501E-05    3
 2.94791045E-08-1.09331511E-11 6.68393932E+04 6.22296438E+00 1.04544720E+04    4
CH2               L S/93C   1H   2   00   00G   200.000  3500.000  1000.000    1
 2.87410113E+00 3.65639292E-03-1.40894597E-06 2.60179549E-10-1.87727567E-14    2
 4.62636040E+04 6.17119324E+00 3.76267867E+00 9.68872143E-04 2.79489841E-06    3
-3.85091153E-09 1.68741719E-12 4.60040401E+04 1.56253185E+00 1.00274170E+04    4
CH2(S)            L S/93C   1H   2   00   00G   200.000  3500.000  1000.000    1
 2.29203842E+00 4.65588637E-03-2.01191947E-06 4.17906000E-10-3.39716365E-14    2
 5.09259997E+04 8.62650169E+00 4.19860411E+00-2.36661419E-03 8.23296220E-06    3
-6.68815981E-09 1.94314737E-12 5.04968163E+04-7.69118967E-01 9.93967200E+03    4
HCCOH              SRI91C   2O   1H   20   0G   300.000  5000.000   1000.0     1
 0.59238291E+01 0.67923600E-02-0.25658564E-05 0.44987841E-09-0.29940101E-13    2
 0.72646260E+04-0.76017742E+01 0.12423733E+01 0.31072201E-01-0.50866864E-04    3
 0.43137131E-07-0.14014594E-10 0.80316143E+04 0.13874319E+02                   4
CH3CO             T 9/92C   2H   3O   1    0G   200.000  6000.0    1000.0      1
 0.59447731E+01 0.78667205E-02-0.28865882E-05 0.47270875E-09-0.28599861E-13    2
-0.37873075E+04-0.50136751E+01 0.41634257E+01-0.23261610E-03 0.34267820E-04    3
-0.44105227E-07 0.17275612E-10-0.26574529E+04 0.73468280E+01-0.12027167E+04    4
!
! A. Burcat
CH3CH2O           T11/82O   1C   2H   5    0G   300.000  5000.0   1000.        1  
 0.60114346E+01 0.12165219E-01-0.40449604E-05 0.59076588E-09-0.30969595E-13    2
-0.49366992E+04-0.67901798E+01 0.17302504E+01 0.16908489E-01 0.39996221E-05    3
-0.13711180E-07 0.57643603E-11-0.32922483E+04 0.17336115E+02-0.20138288E+04    4
C2H4OH            T 4/83H   5C   2O   1    0G   300.000  5000.    1000.        1  
 0.75944014E+01 0.93229339E-02-0.30303854E-05 0.43216319E-09-0.21970039E-13    2
-0.57727852E+04-0.13955572E+02 0.14019508E+01 0.21543175E-01-0.22326512E-05    3
-0.14464092E-07 0.80488420E-11-0.38464519E+04 0.19148981E+02-0.25154820E+04    4
CH3CHOH           T 4/83C   2O   1H   5    0G   300.000  5000.    1000.        1  
 0.67665424E+01 0.11634436E-01-0.37790651E-05 0.53828875E-09-0.27315345E-13    2
-0.56092969E+04-0.93980442E+01 0.24813328E+01 0.16790036E-01 0.37755499E-05    3
-0.13923497E-07 0.60095193E-11-0.40120054E+04 0.14581622E+02-0.25172860E+04    4
CH                121286C   1H   1    0    0G   300.000  5000.000 1365.000    01
 2.21342975E+00 2.15716841E-03-5.73074267E-07 6.56809882E-11-2.67729778E-15    2
 7.09278928E+04 9.20307557E+00 3.50778851E+00-4.60811343E-04 1.32973337E-06    3
-5.15427373E-10 5.83223892E-14 7.04334301E+04 2.09978249E+00                   4
HOC2H4O2                C   2H   5O   3    0G   300.000  5000.000 1391.000    01
 1.00941573E+01 1.23879015E-02-3.73811683E-06 5.46874551E-10-3.09943951E-14    2
-2.37710522E+04-2.00956526E+01 4.44209543E+00 2.52880383E-02-1.51605275E-05    3
 5.24921198E-09-7.91470852E-13-2.17507126E+04 1.04122371E+01                   4
!~~~~~~~~~~~~~~~~~ Notes on THERMO data for species below ~~~~~~~~~~~~~~~~~~~
! 
! OH dHf adjusted to 8.91 kcal/mol (Ruscic et al., 2002)
! CH3 dHf appears to be consistant with Ruscic et al., 1999 already
!
! CH2OH thermo was fit directly to Johnson&Hudgens (1996) table,
! temperatures above 2000 K were extrapolated towards Cp_inf= 12.5 R:
! Cp/Cp_inf = a + (1-a)*exp(-(b/T)^n), where
! a = 0.4238, b = 696.36 K, n = 1.3807
!
! Equilibrium constants:
! C2H5OH = CH3 + CH2OH
! A            n            E (kcal/mol)
! 7.82635E+09 -1.93207E+00  8.92141E+04
!
! C2H5OH = C2H5 + OH
! A            n            E (kcal/mol)
! 1.21865E+08 -1.55343E+00  9.47874E+04
!
CH3               IU0702C  1.H  3.   0.   0.G   200.000  6000.000 1000.        1
 0.29781206E+01 0.57978520E-02-0.19755800E-05 0.30729790E-09-0.17917416E-13    2
 0.16509513E+05 0.47224799E+01 0.36571797E+01 0.21265979E-02 0.54583883E-05    3
-0.66181003E-08 0.24657074E-11 0.16422716E+05 0.16735354E+01 0.17643935E+05    4
CH2OH              JH/96C   1H   3O   1N   0G   250.000  3000.000  750.00      1
 0.37469103E+01 0.88646121E-02-0.42580722E-05 0.10088040E-08-0.94501561E-13    2
-0.36664824E+04 0.54281095E+01 0.46119792E+01-0.31203760E-02 0.35531680E-04    3
-0.49379398E-07 0.22027247E-10-0.36040734E+04 0.28351399E+01                   4
C2H5              T12/91C   2H   5    0    0G   200.000  6000.000 1000.        1
 0.42878814E+01 0.12433893E-01-0.44139119E-05 0.70654102E-09-0.42035136E-13    2
 0.12056455E+05 0.84602583E+00 0.43058580E+01-0.41833638E-02 0.49707270E-04    3
-0.59905874E-07 0.23048478E-10 0.12841714E+05 0.47100236E+01 0.14271225E+05    4
! Previous value prior to Ruscic update
!OH         8/12/99 THERMH   1O   1    0    0G   300.000  5000.000 1357.000    01
! 2.62599754E+00 1.31992406E-03-3.59724670E-07 4.25630800E-11-1.82048016E-15    2
! 4.12085374E+03 7.10667307E+00 3.43586219E+00 2.02235804E-04-1.13546412E-07    3
! 2.42445149E-10-7.43651031E-14 3.74321252E+03 2.45014127E+00                   4
OH                S 9/01O   1H   1    0    0G   200.000  6000.000 1000.        1
 2.86472886E+00 1.05650448E-03-2.59082758E-07 3.05218674E-11-1.33195876E-15    2
 3.68362875E+03 5.70164073E+00 4.12530561E+00-3.22544939E-03 6.52764691E-06    3
-5.79853643E-09 2.06237379E-12 3.34630913E+03-6.90432960E-01 4.51532273E+03    4
C2H5OH            L 8/88C   2H   6O   1    0G   200.000  6000.000 1000.        1
 0.65624365E+01 0.15204222E-01-0.53896795E-05 0.86225011E-09-0.51289787E-13    2
-0.31525621E+05-0.94730202E+01 0.48586957E+01-0.37401726E-02 0.69555378E-04    3
-0.88654796E-07 0.35168835E-10-0.29996132E+05 0.48018545E+01-0.28257829E+05    4
!
CH3OCH3           AK0904C   2H   6O   1    0G   270.000  3000.000  710.00      1
 8.30815546E-01 2.69173263E-02-1.38874777E-05 3.47515079E-09-3.41706784E-13    2
-2.34120975E+04 2.02174360E+01 5.68097447E+00-5.39434751E-03 6.49472750E-05    3
-8.05065318E-08 3.27474018E-11-2.39755455E+04-6.36955496E-01                   4
!
CH3OCH2    7/20/98 THERMC   2H   5O   1    0G   300.000  5000.000 1376.000    21
 8.17137842E+00 1.10086181E-02-3.82352277E-06 5.99637202E-10-3.50317513E-14    2
-3.41941605E+03-1.78650856E+01 2.91327415E+00 2.03364659E-02-9.59712342E-06    3
 2.07478525E-09-1.71343362E-13-1.18844240E+03 1.16066817E+01                   4
CH3OCO     4/20/99 THERMC   2H   3O   2    0G   300.000  5000.000 1362.000    21
 1.30877600E+01 4.53544950E-03-1.65096364E-06 2.67197277E-10-1.59576863E-14    2
-2.46616400E+04-3.27914051E+01 3.94199159E+00 2.43434884E-02-1.65595560E-05    3
 4.58537411E-09-3.31795708E-13-2.14404829E+04 1.66954362E+01                   4
CH3OCHO    4/20/99 THERMC   2H   4O   2    0G   300.000  5000.000 1686.000    21
 8.69123518E+00 1.15503122E-02-4.27782486E-06 7.02533059E-10-4.24333552E-14    2
-4.64364769E+04-1.89301478E+01 3.08839783E+00 2.03760048E-02-6.84777040E-06    3
-7.28186203E-10 5.62130216E-13-4.41855167E+04 1.25364719E+01                   4
OCHO       2/14/95 THERMC   1H   1O   2    0G   300.000  5000.000 1690.000    01
 6.12628782E+00 3.75602932E-03-1.42010352E-06 2.36429200E-10-1.44167651E-14    2
-2.17698466E+04-8.01574694E+00 1.35213452E+00 1.50082004E-02-1.09896141E-05    3
 3.73679840E-09-4.81014498E-13-2.02253647E+04 1.74373147E+01                   4
!
HE                120186HE  1               G  0300.00   5000.00  1000.00      1
 0.02500000E+02 0.00000000E+00 0.00000000E+00 0.00000000E+00 0.00000000E+00    2
-0.07453750E+04 0.09153489E+01 0.02500000E+02 0.00000000E+00 0.00000000E+00    3
 0.00000000E+00 0.00000000E+00-0.07453750E+04 0.09153488E+01                   4
!
! Species involved in low temperature DME oxidation (from LLNL database)
CH3OCH2O2  7/20/98 THERMC   2H   5O   3    0G   300.000  5000.000 1389.000    31
 1.24249729E+01 1.18705986E-02-4.07906532E-06 6.35310809E-10-3.69427867E-14    2
-2.29679238E+04-3.53740145E+01 2.21029612E+00 3.68877454E-02-2.82561555E-05    3
 1.15730533E-08-1.97130470E-12-1.94940940E+04 1.91463601E+01                   4
CH2OCH2O2H 7/20/98 THERMC   2H   5O   3    0G   300.000  5000.000 1393.000    41
 1.51191783E+01 9.23718883E-03-3.19127505E-06 4.99114678E-10-2.91162488E-14    2
-1.84114867E+04-4.85706618E+01 2.52895507E+00 4.24128290E-02-3.73406386E-05    3
 1.66639333E-08-2.96443312E-12-1.44293306E+04 1.76899251E+01                   4
CH3OCH2O2H 7/20/98 THERMC   2H   6O   3    0G   300.000  5000.000 1392.000    41
 1.49370964E+01 1.19465829E-02-4.12746359E-06 6.45422590E-10-3.76427939E-14    2
-4.11001068E+04-4.99552737E+01 1.19855761E+00 4.59060764E-02-3.66252420E-05    3
 1.49318970E-08-2.46057445E-12-3.65363161E+04 2.31339904E+01                   4
CH3OCH2O   2/ 9/96 THERMC   2H   5O   2    0G   300.000  5000.000 2012.000    21
 8.60261845E+00 1.35772195E-02-4.84661602E-06 7.77766193E-10-4.62633624E-14    2
-2.13762444E+04-1.75775023E+01 3.25889339E+00 2.22146359E-02-7.78556340E-06    3
-2.41484158E-10 4.51914496E-13-1.92377212E+04 1.23680069E+01                   4
CH3OCH2OH  2/ 9/96 THERMC   2H   6O   2    0G   300.000  5000.000 2014.000    31
 8.70981570e+00 1.53602372e-02-5.41003788e-06 8.60573446e-10-5.08819752e-14    2
-4.76607115e+04-1.80226702e+01 3.15851876e+00 2.44325751e-02-8.66984784e-06    3
-5.93319328e-11 4.36400003e-13-4.54488899e+04 1.30511235e+01                   4
O2CH2OCH2O2H 7/20/98 TRMC   2H   5O   5    0G   300.000  5000.000 1402.000    51
 1.92038046E+01 1.04394841E-02-3.60582939E-06 5.63792843E-10-3.28807214E-14    2
-3.79207055E+04-6.51847273E+01 1.99640551E+00 5.83226232E-02-5.53259778E-05    3
 2.59810540E-08-4.77141005E-12-3.27628742E+04 2.44215005E+01                   4
HO2CH2OCHO 8/31/99 THERMC   2H   4O   4    0G   300.000  5000.000 1387.000    41
 1.64584298E+01 8.52683511E-03-3.04113500E-06 4.85596908E-10-2.87316334E-14    2
-6.23959608E+04-5.38924139E+01 3.47935703E+00 4.02952392E-02-3.30109296E-05    3
 1.34360117E-08-2.18601580E-12-5.80629934E+04 1.52521392E+01                   4
OCH2OCHO   4/ 9/98 THERMC   2H   3O   3    0G   300.000  5000.000 1475.000    21
 1.20233916E+01 8.11262659E-03-2.91356462E-06 4.67340384E-10-2.77375525E-14    2
-4.33647231E+04-3.33691809E+01 5.19690837E+00 1.58839723E-02 3.53540547E-07    3
-6.10456923E-09 1.94661801E-12-4.02242792E+04 6.11645828E+00                   4
HOCH2OCO   8/31/99 THERMC   2H   3O   3    0G   300.000  5000.000 1603.000    31
 1.13737391E+01 8.17663898E-03-2.92034021E-06 4.66695616E-10-2.76276823E-14    2
-4.65575743E+04-2.86035265E+01 6.08180801E+00 1.28768359E-02 2.04419418E-06    3
-6.10154921E-09 1.79820559E-12-4.39526183E+04 2.54054449E+00                   4
HCOOH      7/ 1/99 THERMC   1H   2O   2    0G   300.000  5000.000 1376.000    11
 6.68733013e+00 5.14289368e-03-1.82238513e-06 2.89719163e-10-1.70892199e-14    2
-4.83995400e+04-1.13104798e+01 1.43548185e+00 1.63363016e-02-1.06257421e-05    3
 3.32132977e-09-4.02176103e-13-4.64616504e+04 1.72885798e+01                   4

!---------------------------------------Han(2020)---------------------------------------------------

N                 ATcT3EN   1    0    0    0G    200.00   6000.00 1000.00      1
 2.41604245E+00 1.74663766E-04-1.18864562E-07 3.01850054E-11-2.03260159E-15    2
 5.61051512E+04 4.64905706E+00 2.49976643E+00 5.02149594E-07 1.93091211E-09    3
-4.94632629E-12 2.74089506E-15 5.60760710E+04 4.19499326E+00 5.68214750E+04    4

NO                ATcT3EN   1O   1    0    0G    200.00   6000.00 1000.00      1
 3.25487317E+00 1.19869941E-03-4.33028500E-07 7.02943336E-11-4.09788575E-15    2
 9.90699836E+03 6.40395140E+00 4.08517990E+00-3.64693188E-03 8.49607612E-06    3
-6.62405734E-09 1.77647373E-12 9.84061267E+03 2.83578236E+00 1.09593379E+04    4

NO2               ATcT3EN   1O   2    0    0G    200.00   6000.00 1000.00      1
 4.90482285E+00 2.14474498E-03-8.12654059E-07 1.55511957E-10-1.04113963E-14    2
 2.28958979E+03-2.33567018E-01 3.78712696E+00-4.29576834E-04 1.37383818E-05    3
-1.74264140E-08 6.71249644E-12 2.89500124E+03 6.96592162E+00 4.09515367E+03    4

N2O               ATcT3EN   2O   1    0    0G    200.00   6000.00 1000.00      1
 4.80641382E+00 2.65307443E-03-9.70797397E-07 1.62590150E-10-9.96738154E-15    2
 8.19798219E+03-2.10607801E+00 2.13942290E+00 1.21800874E-02-1.59189415E-05    3
 1.20920039E-08-3.85125915E-12 8.87008622E+03 1.12477534E+01 9.93076870E+03    4

NH3               ATcT3EH   3N   1    0    0G    200.00   4000.00 1000.00      1
 2.36074311E+00 6.31850146E-03-2.28966806E-06 4.11767411E-10-2.90836787E-14    2
-6.41596473E+03 8.02154329E+00 4.14027871E+00-3.58489142E-03 1.89475904E-05    3
-1.98833970E-08 7.15267961E-12-6.68545158E+03-1.66754883E-02-5.47888720E+03    4

HNO               ATcT3EH   1N   1O   1    0G    200.00   6000.00 1000.00      1
 3.24129053E+00 2.72377193E-03-1.60633296E-07-9.79134982E-11 1.17103944E-14    2
 1.17745744E+04 7.27913637E+00 4.55326160E+00-5.84531688E-03 1.88853744E-05    3
-1.76039893E-08 5.72889621E-12 1.16315603E+04 1.66850841E+00 1.28640914E+04    4

H2NO  RADICAL     T09/09N  1.H  2.O  1.   0.G   200.000  6000.000 1000.        1
 3.75555914E+00 5.16219354E-03-1.76387387E-06 2.75052692E-10-1.60643143E-14    2
 6.51826177E+03 4.30933053E+00 3.93201139E+00-1.64028165E-04 1.39161409E-05    3
-1.62747853E-08 6.00352834E-12 6.71178975E+03 4.58837038E+00 7.97044877E+03    4

NNH               T 1/06N  2.H  1.   0.   0.G   200.000  6000.000 1000.        1 
 3.42744423E+00 3.23295234E-03-1.17296299E-06 1.90508356E-10-1.14491506E-14    2
 2.88067740E+04 6.39209233E+00 4.25474632E+00-3.45098298E-03 1.37788699E-05    3
-1.33263744E-08 4.41023397E-12 2.88323793E+04 3.28551762E+00 3.02815661E+04    4

NH2               ATcT3EH   2N   1    0    0G    200.00   3000.00 1000.00      1
 2.62499312E+00 3.39841177E-03-1.01630968E-06 1.25510796E-10-2.66500843E-15    2
 2.15419104E+04 7.73537416E+00 4.06463329E+00-1.10021454E-03 4.25849068E-06    3
-2.68223583E-09 5.89267407E-13 2.11768668E+04 4.39850770E-01 2.23724635E+04    4

NH                ATcT3EH   1N   1    0    0G    200.00   6000.00 1000.00      1
 2.79498941E+00 1.29259567E-03-3.85559094E-07 6.26027608E-11-3.70421913E-15    2
 4.23408998E+04 5.68413752E+00 3.45887003E+00 4.93904408E-04-1.87862560E-06    3
 2.85542239E-09-1.16864671E-12 4.21088372E+04 2.00373292E+00 4.31505966E+04    4

N2H2 equil & transT 9/11N  2.H  2.   0.   0.G   200.000  6000.000 1000.        1
 1.31115117E+00 9.00187208E-03-3.14911824E-06 4.81449581E-10-2.71897891E-14    2
 2.33863341E+04 1.64091067E+01 4.91066031E+00-1.07791880E-02 3.86516489E-05    3
-3.86501698E-08 1.34852134E-11 2.28241901E+04 9.10273396E-02 2.40806734E+04    4

N2H3   Rad.       T 7/11N  2.H  3.   0.   0.G   200.000  6000.000 1000.        1
 4.04483566E+00 7.31130186E-03-2.47625799E-06 3.83733021E-10-2.23107573E-14    2
 2.53241420E+04 2.88423392E+00 3.42125505E+00 1.34901590E-03 2.23459071E-05    3
-2.99727732E-08 1.20978970E-11 2.58198956E+04 7.83176309E+00 2.70438066E+04    4

N2H4 HYDRAZINE    L 5/90N   2H   4    0    0G   200.000  6000.000 1000.        1  
 4.93957357E+00 8.75017187E-03-2.99399058E-06 4.67278418E-10-2.73068599E-14    2
 9.28265548E+03-2.69439772E+00 3.83472149E+00-6.49129555E-04 3.76848463E-05    3
-5.00709182E-08 2.03362064E-11 1.00893925E+04 5.75272030E+00 1.14474575E+04    4

H2NN Isodiazene   T 9/11N  2.H  2.   0.   0.G   200.000  6000.000 1000.        1
 3.05903670E+00 6.18382347E-03-2.22171165E-06 3.58539206E-10-2.14532905E-14    2
 3.48530149E+04 6.69893515E+00 4.53204001E+00-7.32418578E-03 3.00803713E-05    3
-3.04000551E-08 1.04700639E-11 3.49580003E+04 1.51074195E+00 3.61943157E+04    4

HON               ATcT3EH   1N   1O   1    0G    200.00   6000.00 1000.00      1
 4.12044656E+00 2.28738122E-03-7.14685362E-07 1.03332384E-10-5.70484100E-15    2
 2.43643963E+04 3.38857665E+00 4.15272450E+00-3.87826402E-03 2.05476031E-05    3
-2.49049483E-08 9.87365462E-12 2.46037098E+04 4.56636321E+00 2.58064800E+04    4

H2NO  RADICAL     T09/09N  1.H  2.O  1.   0.G   200.000  6000.000 1000.        1
 3.75555914E+00 5.16219354E-03-1.76387387E-06 2.75052692E-10-1.60643143E-14    2
 6.51826177E+03 4.30933053E+00 3.93201139E+00-1.64028165E-04 1.39161409E-05    3
-1.62747853E-08 6.00352834E-12 6.71178975E+03 4.58837038E+00 7.97044877E+03    4

HONO              ATcT3EH   1N   1O   2    0G    200.00   6000.00 1000.00      1
 5.79144641E+00 3.64630732E-03-1.29112765E-06 2.06498233E-10-1.22138679E-14    2
-1.15974343E+04-4.07145349E+00 3.16416438E+00 8.50517773E-03 5.48561573E-07    3
-8.27656474E-09 4.39957151E-12-1.07744086E+04 1.00231941E+01-9.46242812E+03    4

HNO2              ATcT3EH   1N   1O   2    0G    200.00   6000.00 1000.00      1
 4.66358504E+00 4.89854351E-03-1.79694193E-06 2.94420361E-10-1.78235577E-14    2
-7.25216334E+03-3.06053640E-02 4.03779347E+00-4.46123109E-03 3.19440815E-05    3
-3.79359490E-08 1.44570885E-11-6.53088236E+03 5.90620097E+00-5.31122753E+03    4

HONO2             ATcT3EH   1N   1O   3    0G    200.00   6000.00 1000.00      1
 8.03061257E+00 4.46368336E-03-1.72272779E-06 2.91611606E-10-1.80487362E-14    2
-1.93033764E+04-1.62543421E+01 1.55975056E+00 2.01502169E-02-1.15217296E-05    3
-2.31891230E-09 3.17580552E-12-1.73955871E+04 1.77294677E+01-1.61398294E+04    4

NO3               ATcT3EN   1O   3    0    0G    200.00   6000.00 1000.00      1
 7.37569146E+00 2.21733003E-03-5.75695789E-07 6.69775424E-11-2.58934700E-15    2
 6.22445577E+03-1.24945323E+01 3.35586850E+00 1.06545436E-02-2.86690494E-06    3
-5.14711611E-09 3.08532286E-12 7.47534931E+03 8.94786516E+00 8.91542942E+03    4

HNOH trans & Equ  T11/11H  2.N  1.O  1.   0.G   200.000  6000.000 1000.        1
 3.98321933E+00 4.88846374E-03-1.65086637E-06 2.55371446E-10-1.48308561E-14    2
 1.05780106E+04 3.62582838E+00 3.95608248E+00-3.02611020E-03 2.56874396E-05    3
-3.15645120E-08 1.24084574E-11 1.09199790E+04 5.55950983E+00 1.21354115E+04    4
!---------------------------------------gri mech 3.0---------------------------------------------------
C                 L11/88C   1               G   200.000  3500.000  1000.000    1
 2.49266888E+00 4.79889284E-05-7.24335020E-08 3.74291029E-11-4.87277893E-15    2
 8.54512953E+04 4.80150373E+00 2.55423955E+00-3.21537724E-04 7.33792245E-07    3
-7.32234889E-10 2.66521446E-13 8.54438832E+04 4.53130848E+00                   4
H2CN               41687H   2C   1N   1     G   300.00   4000.000  1000.000    1
 0.52097030E+01 0.29692911E-02-0.28555891E-06-0.16355500E-09 0.30432589E-13    2
 0.27677109E+05-0.44444780E+01 0.28516610E+01 0.56952331E-02 0.10711400E-05    3
-0.16226120E-08-0.23511081E-12 0.28637820E+05 0.89927511E+01                   4
HCN               GRI/98H   1C   1N   1     G   200.000  6000.000  1000.000    1
 0.38022392E+01 0.31464228E-02-0.10632185E-05 0.16619757E-09-0.97997570E-14    2
 0.14407292E+05 0.15754601E+01 0.22589886E+01 0.10051170E-01-0.13351763E-04    3
 0.10092349E-07-0.30089028E-11 0.14712633E+05 0.89164419E+01                   4
HCNO              BDEA94H   1N   1C   1O   1G   300.000  5000.000  1382.000    1
 6.59860456E+00 3.02778626E-03-1.07704346E-06 1.71666528E-10-1.01439391E-14    2
 1.79661339E+04-1.03306599E+01 2.64727989E+00 1.27505342E-02-1.04794236E-05    3
 4.41432836E-09-7.57521466E-13 1.92990252E+04 1.07332972E+01                   4
HOCN              BDEA94H   1N   1C   1O   1G   300.000  5000.000  1368.000    1
 5.89784885E+00 3.16789393E-03-1.11801064E-06 1.77243144E-10-1.04339177E-14    2
-3.70653331E+03-6.18167825E+00 3.78604952E+00 6.88667922E-03-3.21487864E-06    3
 5.17195767E-10 1.19360788E-14-2.82698400E+03 5.63292162E+00                   4
HNCO              BDEA94H   1N   1C   1O   1G   300.000  5000.000  1478.000    1
 6.22395134E+00 3.17864004E-03-1.09378755E-06 1.70735163E-10-9.95021955E-15    2
-1.66599344E+04-8.38224741E+00 3.63096317E+00 7.30282357E-03-2.28050003E-06    3
-6.61271298E-10 3.62235752E-13-1.55873636E+04 6.19457727E+00                   4
NCO               EA 93 N   1C   1O   1     G   200.000  6000.000  1000.000    1
 0.51521845E+01 0.23051761E-02-0.88033153E-06 0.14789098E-09-0.90977996E-14    2
 0.14004123E+05-0.25442660E+01 0.28269308E+01 0.88051688E-02-0.83866134E-05    3
 0.48016964E-08-0.13313595E-11 0.14682477E+05 0.95504646E+01                   4
CN                HBH92 C   1N   1          G   200.000  6000.000  1000.000    1
 0.37459805E+01 0.43450775E-04 0.29705984E-06-0.68651806E-10 0.44134173E-14    2
 0.51536188E+05 0.27867601E+01 0.36129351E+01-0.95551327E-03 0.21442977E-05    3
-0.31516323E-09-0.46430356E-12 0.51708340E+05 0.39804995E+01                   4
HCNN              SRI/94C   1N   2H   1     G   300.000  5000.000  1000.000    1
 0.58946362E+01 0.39895959E-02-0.15982380E-05 0.29249395E-09-0.20094686E-13    2
 0.53452941E+05-0.51030502E+01 0.25243194E+01 0.15960619E-01-0.18816354E-04    3
 0.12125540E-07-0.32357378E-11 0.54261984E+05 0.11675870E+02                   4
HNC              ATcT/A H   1N   1C   1    0G   200.000  6000.000 1000.000     1
 4.22248262E+00 2.59458082E-03-8.58480324E-07 1.30744940E-10-7.50339813E-15    2
 2.17156730E+04-7.79706410E-02 2.30186822E+00 1.54157449E-02-3.13261898E-05    3
 3.08816218E-08-1.11912204E-11 2.19306327E+04 8.14749128E+00 2.30810956E+04    4
NCN  MethaneTetr  T 5/14C  1.N  2.   0.   0.G   200.000  6000.000  1000.0      1
 5.68744173E+00 1.82662756E-03-7.07546249E-07 1.19515592E-10-7.31827071E-15    2
 5.15901177E+04-6.31954433E+00 2.79807977E+00 1.00008683E-02-9.59229469E-06    3
 4.75546842E-09-1.04340146E-12 5.24021705E+04 8.62129767E+00 5.36050832E+04    4